CHEMBL519112
  -OEChem-07121202273D

 42 44  0     0  0  0  0  0  0999 V2000
    2.0161   -0.8808    2.2997 C   0  0  0  0  0  0  0  0  0  0  0  0
    1.5626   -1.1766    0.9385 N   0  0  0  0  0  0  0  0  0  0  0  0
    0.9437   -2.3176    0.5409 C   0  0  0  0  0  0  0  0  0  0  0  0
    0.6736   -2.2300   -0.7896 C   0  0  0  0  0  0  0  0  0  0  0  0
    1.1406   -0.9894   -1.2404 C   0  0  0  0  0  0  0  0  0  0  0  0
    1.6882   -0.3406   -0.1493 C   0  0  0  0  0  0  0  0  0  0  0  0
    2.2752    0.9507   -0.1501 C   0  0  0  0  0  0  0  0  0  0  0  0
    2.7302    1.4174    0.8871 O   0  0  0  0  0  0  0  0  0  0  0  0
    2.3271    1.5992   -1.1881 O   0  5  0  0  0  0  0  0  0  0  0  0
    0.0391   -3.2113   -1.5730 N   0  0  0  0  0  0  0  0  0  0  0  0
   -0.5014   -4.4170   -0.9403 C   0  0  0  0  0  0  0  0  0  0  0  0
   -1.9328   -4.1739   -0.5366 C   0  0  0  0  0  0  0  0  0  0  0  0
   -2.2205   -3.6617    0.7147 C   0  0  0  0  0  0  0  0  0  0  0  0
   -3.5335   -3.4386    1.0850 C   0  0  0  0  0  0  0  0  0  0  0  0
   -4.5588   -3.7273    0.2039 C   0  0  0  0  0  0  0  0  0  0  0  0
   -4.2710   -4.2387   -1.0477 C   0  0  0  0  0  0  0  0  0  0  0  0
   -2.9577   -4.4577   -1.4197 C   0  0  0  0  0  0  0  0  0  0  0  0
   -0.0755   -3.0361   -2.9537 C   0  0  0  0  0  0  0  0  0  0  0  0
    0.8833   -3.5707   -3.8054 C   0  0  0  0  0  0  0  0  0  0  0  0
    0.7666   -3.3958   -5.1703 C   0  0  0  0  0  0  0  0  0  0  0  0
   -0.3030   -2.6896   -5.6896 C   0  0  0  0  0  0  0  0  0  0  0  0
   -1.2590   -2.1557   -4.8447 C   0  0  0  0  0  0  0  0  0  0  0  0
   -1.1516   -2.3316   -3.4792 C   0  0  0  0  0  0  0  0  0  0  0  0
   -0.4248   -2.5042   -7.1531 N   0  3  0  0  0  0  0  0  0  0  0  0
    0.4103   -2.9700   -7.8930 O   0  0  0  0  0  0  0  0  0  0  0  0
   -1.3593   -1.8871   -7.6086 O   0  5  0  0  0  0  0  0  0  0  0  0
    1.2138   -0.3912    2.8517 H   0  0  0  0  0  0  0  0  0  0  0  0
    2.2885   -1.8092    2.8017 H   0  0  0  0  0  0  0  0  0  0  0  0
    2.8835   -0.2219    2.2587 H   0  0  0  0  0  0  0  0  0  0  0  0
    0.7051   -3.1575    1.1766 H   0  0  0  0  0  0  0  0  0  0  0  0
    1.0809   -0.6094   -2.2496 H   0  0  0  0  0  0  0  0  0  0  0  0
   -0.4587   -5.2475   -1.6451 H   0  0  0  0  0  0  0  0  0  0  0  0
    0.0891   -4.6596   -0.0568 H   0  0  0  0  0  0  0  0  0  0  0  0
   -1.4195   -3.4361    1.4031 H   0  0  0  0  0  0  0  0  0  0  0  0
   -3.7583   -3.0391    2.0629 H   0  0  0  0  0  0  0  0  0  0  0  0
   -5.5846   -3.5537    0.4935 H   0  0  0  0  0  0  0  0  0  0  0  0
   -5.0720   -4.4646   -1.7360 H   0  0  0  0  0  0  0  0  0  0  0  0
   -2.7327   -4.8537   -2.3989 H   0  0  0  0  0  0  0  0  0  0  0  0
    1.7191   -4.1220   -3.4006 H   0  0  0  0  0  0  0  0  0  0  0  0
    1.5117   -3.8108   -5.8329 H   0  0  0  0  0  0  0  0  0  0  0  0
   -2.0928   -1.6044   -5.2536 H   0  0  0  0  0  0  0  0  0  0  0  0
   -1.9010   -1.9185   -2.8204 H   0  0  0  0  0  0  0  0  0  0  0  0
  1  2  1  0  0  0  0
  1 27  1  0  0  0  0
  1 28  1  0  0  0  0
  1 29  1  0  0  0  0
  2  6  1  0  0  0  0
  2  3  1  0  0  0  0
  3  4  2  0  0  0  0
  3 30  1  0  0  0  0
  4  5  1  0  0  0  0
  4 10  1  0  0  0  0
  5  6  2  0  0  0  0
  5 31  1  0  0  0  0
  6  7  1  0  0  0  0
  7  8  2  0  0  0  0
  7  9  1  0  0  0  0
 10 11  1  0  0  0  0
 10 18  1  0  0  0  0
 11 12  1  0  0  0  0
 11 32  1  0  0  0  0
 11 33  1  0  0  0  0
 12 17  2  0  0  0  0
 12 13  1  0  0  0  0
 13 14  2  0  0  0  0
 13 34  1  0  0  0  0
 14 15  1  0  0  0  0
 14 35  1  0  0  0  0
 15 16  2  0  0  0  0
 15 36  1  0  0  0  0
 16 17  1  0  0  0  0
 16 37  1  0  0  0  0
 17 38  1  0  0  0  0
 18 23  2  0  0  0  0
 18 19  1  0  0  0  0
 19 20  2  0  0  0  0
 19 39  1  0  0  0  0
 20 21  1  0  0  0  0
 20 40  1  0  0  0  0
 21 22  2  0  0  0  0
 21 24  1  0  0  0  0
 22 23  1  0  0  0  0
 22 41  1  0  0  0  0
 23 42  1  0  0  0  0
 24 25  2  0  0  0  0
 24 26  1  0  0  0  0
M  CHG  3   9  -1  24   1  26  -1
M  END