ZINC04955856
  -OEChem-07131206443D

 48 49  0     1  0  0  0  0  0999 V2000
    2.4274    4.4316   -0.1369 C   0  0  0  0  0  0  0  0  0  0  0  0
    1.1492    3.6378   -0.0518 C   0  0  0  0  0  0  0  0  0  0  0  0
   -0.0677    4.2641   -0.2463 C   0  0  0  0  0  0  0  0  0  0  0  0
   -1.2401    3.5359   -0.1688 C   0  0  0  0  0  0  0  0  0  0  0  0
   -1.1959    2.1824    0.1090 C   0  0  0  0  0  0  0  0  0  0  0  0
    0.0212    1.5552    0.2992 C   0  0  0  0  0  0  0  0  0  0  0  0
    1.1936    2.2834    0.2212 C   0  0  0  0  0  0  0  0  0  0  0  0
    0.0696    0.0786    0.5964 C   0  0  0  0  0  0  0  0  0  0  0  0
   -2.4744    1.3898    0.1997 C   0  0  1  0  0  0  0  0  0  0  0  0
   -2.2388    0.3293    0.2896 H   0  0  0  0  0  0  0  0  0  0  0  0
   -3.2686    1.8416    1.4269 C   0  0  0  0  0  0  0  0  0  0  0  0
   -2.5189    1.4623    2.6780 C   0  0  0  0  0  0  0  0  0  0  0  0
   -2.6563    0.2720    3.1825 N   0  0  0  0  0  0  0  0  0  0  0  0
   -3.4171   -0.6915    2.5074 N   0  0  0  0  0  0  0  0  0  0  0  0
   -3.6447   -1.8913    3.0777 C   0  0  0  0  0  0  0  0  0  0  0  0
   -4.3051   -2.7276    2.4917 O   0  0  0  0  0  0  0  0  0  0  0  0
   -3.1405   -2.1642    4.2974 N   0  0  0  0  0  0  0  0  0  0  0  0
   -1.6341    2.4362    3.3266 C   0  0  0  0  0  0  0  0  0  0  0  0
   -0.7853    2.2609    4.4054 C   0  0  0  0  0  0  0  0  0  0  0  0
   -0.0463    3.3378    4.8374 C   0  0  0  0  0  0  0  0  0  0  0  0
   -0.1711    4.5296    4.1977 C   0  0  0  0  0  0  0  0  0  0  0  0
   -1.3655    4.1550    2.9251 S   0  0  0  0  0  0  0  0  0  0  0  0
   -3.3089    1.6217   -1.0615 C   0  0  0  0  0  0  0  0  0  0  0  0
   -2.5811    1.1070   -2.2329 C   0  0  0  0  0  0  0  0  0  0  0  0
   -2.0194    0.7097   -3.1369 N   0  0  0  0  0  0  0  0  0  0  0  0
   -4.5955    0.9179   -0.9350 C   0  0  0  0  0  0  0  0  0  0  0  0
   -5.5884    0.3747   -0.8373 N   0  0  0  0  0  0  0  0  0  0  0  0
   -2.5666    4.2187   -0.3809 C   0  0  0  0  0  0  0  0  0  0  0  0
    2.6779    4.8235    0.8489 H   0  0  0  0  0  0  0  0  0  0  0  0
    3.2332    3.7864   -0.4869 H   0  0  0  0  0  0  0  0  0  0  0  0
    2.2955    5.2589   -0.8341 H   0  0  0  0  0  0  0  0  0  0  0  0
   -0.1024    5.3223   -0.4593 H   0  0  0  0  0  0  0  0  0  0  0  0
    2.1443    1.7940    0.3732 H   0  0  0  0  0  0  0  0  0  0  0  0
   -0.0799   -0.0822    1.6640 H   0  0  0  0  0  0  0  0  0  0  0  0
   -0.7167   -0.4302    0.0387 H   0  0  0  0  0  0  0  0  0  0  0  0
    1.0403   -0.3197    0.3013 H   0  0  0  0  0  0  0  0  0  0  0  0
   -3.4007    2.9231    1.3963 H   0  0  0  0  0  0  0  0  0  0  0  0
   -4.2446    1.3562    1.4270 H   0  0  0  0  0  0  0  0  0  0  0  0
   -3.7800   -0.4951    1.6296 H   0  0  0  0  0  0  0  0  0  0  0  0
   -2.6138   -1.4971    4.7649 H   0  0  0  0  0  0  0  0  0  0  0  0
   -3.3044   -3.0277    4.7079 H   0  0  0  0  0  0  0  0  0  0  0  0
   -0.7053    1.3023    4.8963 H   0  0  0  0  0  0  0  0  0  0  0  0
    0.6264    3.2367    5.6763 H   0  0  0  0  0  0  0  0  0  0  0  0
    0.3281    5.4648    4.4040 H   0  0  0  0  0  0  0  0  0  0  0  0
   -3.4896    2.6894   -1.1864 H   0  0  0  0  0  0  0  0  0  0  0  0
   -2.7758    4.2826   -1.4487 H   0  0  0  0  0  0  0  0  0  0  0  0
   -3.3531    3.6451    0.1097 H   0  0  0  0  0  0  0  0  0  0  0  0
   -2.5306    5.2222    0.0430 H   0  0  0  0  0  0  0  0  0  0  0  0
  1  2  1  0  0  0  0
  1 29  1  0  0  0  0
  1 30  1  0  0  0  0
  1 31  1  0  0  0  0
  2  7  2  0  0  0  0
  2  3  1  0  0  0  0
  3  4  2  0  0  0  0
  3 32  1  0  0  0  0
  4  5  1  0  0  0  0
  4 28  1  0  0  0  0
  5  6  2  0  0  0  0
  5  9  1  0  0  0  0
  6  7  1  0  0  0  0
  6  8  1  0  0  0  0
  7 33  1  0  0  0  0
  8 34  1  0  0  0  0
  8 35  1  0  0  0  0
  8 36  1  0  0  0  0
  9 10  1  0  0  0  0
  9 11  1  0  0  0  0
  9 23  1  0  0  0  0
 11 12  1  0  0  0  0
 11 37  1  0  0  0  0
 11 38  1  0  0  0  0
 12 13  2  0  0  0  0
 12 18  1  0  0  0  0
 13 14  1  0  0  0  0
 14 15  1  0  0  0  0
 14 39  1  0  0  0  0
 15 16  2  0  0  0  0
 15 17  1  0  0  0  0
 17 40  1  0  0  0  0
 17 41  1  0  0  0  0
 18 22  1  0  0  0  0
 18 19  2  0  0  0  0
 19 20  1  0  0  0  0
 19 42  1  0  0  0  0
 20 21  2  0  0  0  0
 20 43  1  0  0  0  0
 21 22  1  0  0  0  0
 21 44  1  0  0  0  0
 23 24  1  0  0  0  0
 23 26  1  0  0  0  0
 23 45  1  0  0  0  0
 24 25  3  0  0  0  0
 26 27  3  0  0  0  0
 28 46  1  0  0  0  0
 28 47  1  0  0  0  0
 28 48  1  0  0  0  0
M  END