CHEMBL144760
  -OEChem-07121202273D

 62 63  0     0  0  0  0  0  0999 V2000
    2.2207    1.4585    1.0969 C   0  0  0  0  0  0  0  0  0  0  0  0
    1.2711    2.1775    0.3571 C   0  0  0  0  0  0  0  0  0  0  0  0
    0.3646    1.4923   -0.4650 C   0  0  0  0  0  0  0  0  0  0  0  0
    0.4129    0.1156   -0.5407 C   0  0  0  0  0  0  0  0  0  0  0  0
    1.3614   -0.5920    0.1991 C   0  0  0  0  0  0  0  0  0  0  0  0
    2.2602    0.0851    1.0141 C   0  0  0  0  0  0  0  0  0  0  0  0
    1.4060   -1.9466    0.1222 O   0  0  0  0  0  0  0  0  0  0  0  0
   -0.4647   -0.5524   -1.3364 O   0  0  0  0  0  0  0  0  0  0  0  0
    1.2256    3.6386    0.4429 C   0  0  0  0  0  0  0  0  0  0  0  0
    0.0312    4.3023    0.2658 C   0  0  0  0  0  0  0  0  0  0  0  0
    0.0082    5.7721    0.2053 C   0  0  0  0  0  0  0  0  0  0  0  0
    1.0438    6.4015    0.3116 O   0  0  0  0  0  0  0  0  0  0  0  0
   -1.1601    6.4213    0.0320 N   0  0  0  0  0  0  0  0  0  0  0  0
   -1.1829    7.8849   -0.0283 C   0  0  0  0  0  0  0  0  0  0  0  0
   -2.6218    8.3647   -0.2291 C   0  0  0  0  0  0  0  0  0  0  0  0
   -2.6456    9.8932   -0.2921 C   0  0  0  0  0  0  0  0  0  0  0  0
   -4.0845   10.3730   -0.4929 C   0  0  0  0  0  0  0  0  0  0  0  0
   -4.1083   11.9015   -0.5559 C   0  0  0  0  0  0  0  0  0  0  0  0
   -5.5472   12.3813   -0.7567 C   0  0  0  0  0  0  0  0  0  0  0  0
   -5.5700   13.8449   -0.8170 N   0  0  0  0  0  0  0  0  0  0  0  0
   -6.7384   14.4940   -0.9903 C   0  0  0  0  0  0  0  0  0  0  0  0
   -7.7739   13.8647   -1.0966 O   0  0  0  0  0  0  0  0  0  0  0  0
   -6.7613   15.9639   -1.0508 C   0  0  0  0  0  0  0  0  0  0  0  0
   -7.9557   16.6276   -1.2279 C   0  0  0  0  0  0  0  0  0  0  0  0
   -7.9638   18.0764   -1.4408 C   0  0  0  0  0  0  0  0  0  0  0  0
   -6.8749   18.7019   -2.0654 C   0  0  0  0  0  0  0  0  0  0  0  0
   -6.8892   20.0672   -2.2627 C   0  0  0  0  0  0  0  0  0  0  0  0
   -7.9845   20.8226   -1.8415 C   0  0  0  0  0  0  0  0  0  0  0  0
   -9.0641   20.2047   -1.2225 C   0  0  0  0  0  0  0  0  0  0  0  0
   -9.0625   18.8422   -1.0261 C   0  0  0  0  0  0  0  0  0  0  0  0
   -7.9950   22.1660   -2.0368 O   0  0  0  0  0  0  0  0  0  0  0  0
   -5.8351   20.6775   -2.8675 O   0  0  0  0  0  0  0  0  0  0  0  0
   -5.5422   16.7047   -0.9256 C   0  0  0  0  0  0  0  0  0  0  0  0
   -4.5752   17.2925   -0.8263 N   0  0  0  0  0  0  0  0  0  0  0  0
   -1.1879    3.5614    0.1406 C   0  0  0  0  0  0  0  0  0  0  0  0
   -2.1549    2.9737    0.0413 N   0  0  0  0  0  0  0  0  0  0  0  0
    2.9235    1.9823    1.7278 H   0  0  0  0  0  0  0  0  0  0  0  0
   -0.3693    2.0407   -1.0369 H   0  0  0  0  0  0  0  0  0  0  0  0
    2.9922   -0.4678    1.5840 H   0  0  0  0  0  0  0  0  0  0  0  0
    1.9871   -2.2821   -0.5741 H   0  0  0  0  0  0  0  0  0  0  0  0
   -0.1505   -0.6886   -2.2408 H   0  0  0  0  0  0  0  0  0  0  0  0
    2.1283    4.1960    0.6451 H   0  0  0  0  0  0  0  0  0  0  0  0
   -1.9858    5.9195   -0.0528 H   0  0  0  0  0  0  0  0  0  0  0  0
   -0.7905    8.2930    0.9031 H   0  0  0  0  0  0  0  0  0  0  0  0
   -0.5672    8.2239   -0.8614 H   0  0  0  0  0  0  0  0  0  0  0  0
   -3.0142    7.9565   -1.1605 H   0  0  0  0  0  0  0  0  0  0  0  0
   -3.2375    8.0257    0.6040 H   0  0  0  0  0  0  0  0  0  0  0  0
   -2.2532   10.3014    0.6393 H   0  0  0  0  0  0  0  0  0  0  0  0
   -2.0300   10.2322   -1.1252 H   0  0  0  0  0  0  0  0  0  0  0  0
   -4.4769    9.9648   -1.4243 H   0  0  0  0  0  0  0  0  0  0  0  0
   -4.7002   10.0340    0.3402 H   0  0  0  0  0  0  0  0  0  0  0  0
   -3.7159   12.3097    0.3755 H   0  0  0  0  0  0  0  0  0  0  0  0
   -3.4927   12.2405   -1.3890 H   0  0  0  0  0  0  0  0  0  0  0  0
   -5.9396   11.9731   -1.6881 H   0  0  0  0  0  0  0  0  0  0  0  0
   -6.1629   12.0423    0.0764 H   0  0  0  0  0  0  0  0  0  0  0  0
   -4.7443   14.3467   -0.7322 H   0  0  0  0  0  0  0  0  0  0  0  0
   -8.8860   16.0793   -1.2098 H   0  0  0  0  0  0  0  0  0  0  0  0
   -6.0276   18.1165   -2.3907 H   0  0  0  0  0  0  0  0  0  0  0  0
   -9.9089   20.7944   -0.8987 H   0  0  0  0  0  0  0  0  0  0  0  0
   -9.9051   18.3642   -0.5486 H   0  0  0  0  0  0  0  0  0  0  0  0
   -8.3816   22.4378   -2.8805 H   0  0  0  0  0  0  0  0  0  0  0  0
   -5.9137   20.7363   -3.8295 H   0  0  0  0  0  0  0  0  0  0  0  0
  1  6  2  0  0  0  0
  1  2  1  0  0  0  0
  1 37  1  0  0  0  0
  2  3  2  0  0  0  0
  2  9  1  0  0  0  0
  3  4  1  0  0  0  0
  3 38  1  0  0  0  0
  4  5  2  0  0  0  0
  4  8  1  0  0  0  0
  5  6  1  0  0  0  0
  5  7  1  0  0  0  0
  6 39  1  0  0  0  0
  7 40  1  0  0  0  0
  8 41  1  0  0  0  0
  9 10  2  0  0  0  0
  9 42  1  0  0  0  0
 10 11  1  0  0  0  0
 10 35  1  0  0  0  0
 11 12  2  0  0  0  0
 11 13  1  0  0  0  0
 13 14  1  0  0  0  0
 13 43  1  0  0  0  0
 14 15  1  0  0  0  0
 14 44  1  0  0  0  0
 14 45  1  0  0  0  0
 15 16  1  0  0  0  0
 15 46  1  0  0  0  0
 15 47  1  0  0  0  0
 16 17  1  0  0  0  0
 16 48  1  0  0  0  0
 16 49  1  0  0  0  0
 17 18  1  0  0  0  0
 17 50  1  0  0  0  0
 17 51  1  0  0  0  0
 18 19  1  0  0  0  0
 18 52  1  0  0  0  0
 18 53  1  0  0  0  0
 19 20  1  0  0  0  0
 19 54  1  0  0  0  0
 19 55  1  0  0  0  0
 20 21  1  0  0  0  0
 20 56  1  0  0  0  0
 21 22  2  0  0  0  0
 21 23  1  0  0  0  0
 23 24  2  0  0  0  0
 23 33  1  0  0  0  0
 24 25  1  0  0  0  0
 24 57  1  0  0  0  0
 25 30  2  0  0  0  0
 25 26  1  0  0  0  0
 26 27  2  0  0  0  0
 26 58  1  0  0  0  0
 27 28  1  0  0  0  0
 27 32  1  0  0  0  0
 28 29  2  0  0  0  0
 28 31  1  0  0  0  0
 29 30  1  0  0  0  0
 29 59  1  0  0  0  0
 30 60  1  0  0  0  0
 31 61  1  0  0  0  0
 32 62  1  0  0  0  0
 33 34  3  0  0  0  0
 35 36  3  0  0  0  0
M  END